Circuit: * S:\My Documents\CD4007_NOFB.asc

Model "cmosp": Oxide thickness thinner than recommended for a level 1 MOSFET.
Instance "m2": Length shorter than recommended for a level 1 MOSFET.
Model "cmosn": Oxide thickness thinner than recommended for a level 1 MOSFET.
Instance "m1": Length shorter than recommended for a level 1 MOSFET.
Direct Newton iteration failed to find .op point.  (Use ".option noopiter" to skip.)
Starting Gmin stepping
Gmin = 10
Gmin = 1.07374
Gmin = 0.115292
Gmin = 0.0123794
Gmin = 0.00132923
Gmin = 0.000142725
Gmin = 1.5325e-005
Gmin = 1.6455e-006
Gmin = 1.76685e-007
Gmin = 1.89714e-008
Gmin = 2.03704e-009
Gmin = 2.18725e-010
Gmin = 2.34854e-011
Gmin = 2.52173e-012
Gmin = 2.70769e-013
Gmin = 0
Gmin stepping succeeded in finding the operating point.

Heightened Def Con from 6.10194e-005 +++++to 6.10194e-005
Heightened Def Con from 6.10194e-005 to 6.10194e-005
Heightened Def Con from 6.10194e-005 ++++++++++to 6.10194e-005
Heightened Def Con from 6.10194e-005 ++++++++++++++++++++++++++++++to 6.10224e-005

Date: Tue Feb 18 16:51:10 2014
Total elapsed time: 0.129 seconds.

tnom = 27
temp = 27
method = modified trap
totiter = 7610
traniter = 7242
tranpoints = 1002
accept = 375
rejected = 676
matrix size = 10
fillins = 0
solver = Normal
Matrix Compiler1: 346 bytes object code size  0.8/0.7/[0.7]
Matrix Compiler2: off  [0.8]/1.0/1.0


