Circuit: * S:\My Documents\DavidHouston\FPSi Senior Project\Draft2.asc

Error on line 9 : d1 n005 n006 mbr0530l
	 Unable to find definition of model "mbr0530l"
Direct Newton iteration failed to find .op point.  (Use ".option noopiter" to skip.)
Starting Gmin stepping
Gmin = 10
Gmin = 1.07374
vernier = 0.5
vernier = 0.25
vernier = 0.125
vernier = 0.0625
Gmin = 1.08884
vernier = 0.03125
vernier = 0.015625
Gmin = 1.03922
vernier = 0.0078125
vernier = 0.00390625
Gmin = 1.02313
vernier = 0.00520833
vernier = 0.00260417
Gmin = 1.01616
vernier = 0.00347222
vernier = 0.00173611
vernier = 0.00231481
Gmin = 1.01205
vernier = 0.00115741
vernier = 0.00154321
vernier = 0.000771604
Gmin = 1.0104
vernier = 0.00102881
Gmin = 1.00812
vernier = 0.000514403
vernier = 0.00068587
Gmin = 1.00704
vernier = 0.000514403
vernier = 0.00068587
vernier = 0.000514402
Gmin = 1.00622
Gmin = 0
Gmin stepping failed

Starting source stepping with srcstepmethod=0
Source Step = 3.0303%
Source Step = 33.3333%
Source Step = 63.6364%
Source Step = 93.9394%
Source stepping succeeded in finding the operating point.

Ignoring empty pin current: Ix(u1:2)
Ignoring empty pin current: Ix(u1:9)
Ignoring empty pin current: Ix(u1:2)
Ignoring empty pin current: Ix(u1:9)

Date: Thu Apr 30 22:14:23 2015
Total elapsed time: 8.288 seconds.

tnom = 27
temp = 27
method = modified trap
totiter = 16218
traniter = 9400
tranpoints = 3963
accept = 3337
rejected = 626
matrix size = 45
fillins = 12
solver = Normal
Thread vector: 30.0/24.2[2] 12.7/18.3[1] 4.6/15.3[1] 0.5/1.1[1]  2592/500
Matrix Compiler1: 2.28 KB object code size  2.0/1.3/[0.8]
Matrix Compiler2: 3.68 KB object code size  1.3/2.0/[1.0]


