Circuit: * S:\My Documents\DavidHouston\FPSi Senior Project\Draft1.asc

Direct Newton iteration failed to find .op point.  (Use ".option noopiter" to skip.)
Starting Gmin stepping
Gmin = 10
Gmin = 1.07374
vernier = 0.5
vernier = 0.25
vernier = 0.125
vernier = 0.0625
Gmin = 1.15289
vernier = 0.03125
Gmin = 1.0585
vernier = 0.015625
vernier = 0.0078125
Gmin = 1.04413
vernier = 0.0104167
vernier = 0.00520833
vernier = 0.00694444
Gmin = 1.03153
vernier = 0.00347222
vernier = 0.00462963
vernier = 0.00231481
Gmin = 1.02647
vernier = 0.00308642
vernier = 0.00154321
Gmin = 1.02153
vernier = 0.00205761
vernier = 0.00102881
Gmin = 1.01786
vernier = 0.00137174
Gmin = 1.01481
vernier = 0.00182899
vernier = 0.000914493
vernier = 0.00121932
vernier = 0.000609662
Gmin = 1.0133
vernier = 0.000812882
Gmin = 1.0115
vernier = 0.00108384
vernier = 0.000541921
vernier = 0.000722562
Gmin = 1.01025
vernier = 0.000541921
vernier = 0.000722562
vernier = 0.000541921
Gmin = 1.00947
vernier = 0.000722561
vernier = 0.000541921
vernier = 0.000406441
Gmin = 1.00875
vernier = 0.000541921
vernier = 0.000406441
vernier = 0.000541921
Gmin = 1.0079
vernier = 0.000406441
Gmin = 0
Gmin stepping failed

Starting source stepping with srcstepmethod=0
Source Step = 3.0303%
Source Step = 33.3333%
Source Step = 63.6364%
Source Step = 93.9394%
Source stepping succeeded in finding the operating point.


Date: Thu May 07 15:58:58 2015
Total elapsed time: 8.477 seconds.

tnom = 27
temp = 27
method = modified trap
totiter = 35878
traniter = 25324
tranpoints = 12056
accept = 10162
rejected = 1894
matrix size = 18
fillins = 7
solver = Normal
Thread vector: 22.6/13.5[2] 6.5/4.9[2] 3.6/4.1[1] 0.5/0.9[1]  2592/500
Matrix Compiler1: 1.21 KB object code size  1.1/0.6/[0.3]
Matrix Compiler2: 1.90 KB object code size  0.7/0.9/[0.5]


